framework/functions/case34_ss.m
function mpc = case34
% global B
%CASE9    Power flow data for 9 bus, 3 generator case.
%   Please see CASEFORMAT for details on the case file format.
%
%   Based on data from Joe H. Chow's book, p. 70.

%   MATPOWER
%   $Id: case9.m 2408 2014-10-22 20:41:33Z ray $

%% MATPOWER Case Format : Version 2
mpc.version = '2';

%%-----  Power Flow Data  -----%%
%% system MVA base
mpc.baseMVA = 100;

%% bus data
%	bus_i	type	Pd	Qd	Gs	Bs	area	Vm	Va	baseKV	zone	Vmax	Vmin
mpc.bus = [
	1	1	0	0	0	0	1	1	0	35	1	1.2	0.8;
	2	1	0.06	0.02	0	0	1	1	0	35	1	1.2	0.8;
	3	1	0.045	0.03	0	0	1	1	0	35	1	1.2	0.8;
	4	1	0.06	0.035	0	0	1	1	0	35	1	1.2	0.8;
	5	1	0.06	0.035	0	0	1	1	0	35	1	1.2	0.8;
	6	1	0.12	0.08	0	0	1	1	0	35	1	1.2	0.8;
	7	1	0.06	0.01	0	0	1	1	0	35	1	1.2	0.8;
	8	1	0.06	0.02	0	0	1	1	0	35	1	1.2	0.8;
	9	1	0.06	0.02	0	0	1	1	0	35	1	1.2	0.8;
    10	1	0.09	0.04	0	0	1	1	0	35	1	1.2	0.8;
    11	1	0.09	0.04	0	0	1	1	0	35	1	1.2	0.8;
	12	1	0.10	0.06	0	0	1	1	0	35	1	1.2	0.8;
	13	1	0.09	0.04	0	0	1	1	0	35	1	1.2	0.8;
	14	1	0.09	0.04	0	0	1	1	0	35	1	1.2	0.8;
	15	1	0.09	0.04	0	0	1	1	0	35	1	1.2	0.8;
    16	1	0.09	0.05	0	0	1	1	0	35	1	1.2	0.8;
	17	1	0.42	0.20	0	0	1	1	0	35	1	1.2	0.8;
	18	1	0.42	0.20	0	0	1	1	0	35	1	1.2	0.8;
	19	1	0.06	0.025	0	0	1	1	0	35	1	1.2	0.8;
    20	1	0.05	0.025	0	0	1	1	0	35	1	1.2	0.8;
    21	1	0.06	0.02	0	0	1	1	0	35	1	1.2	0.8;
	22	1	0.12	0.07	0	0	1	1	0	35	1	1.2	0.8;
	23	1	0.09	0.04	0	0	1	1	0	35	1	1.2	0.8;
	24	1	0.20	0.60	0	0	1	1	0	35	1	1.2	0.8;
	25	1	0.15	0.07	0	0	1	1	0	35	1	1.2	0.8;
	26	1	0.21	0.10	0	0	1	1	0	35	1	1.2	0.8;
	27	1	0.06	0.04	0	0	1	1	0	35	1	1.2	0.8;
	28  3   0	    0	    0	0	1	1	0 	35	1	1.1	0.9;
    29	1	0.12	0.08	0	0	1	1	0	35	1	1.2	0.8;
	30	1	0.06	0.03	0	0	1	1	0	35	1	1.2	0.8;
    31	1	0.06	0.02	0	0	1	1	0	35	1	1.2	0.8;
    32	1	0.20	0.10	0	0	1	1	0	35	1	1.2	0.8;
	33	1	0.20	0.10	0	0	1	1	0	35	1	1.2	0.8;
	34	1	0.06	0.02	0	0	1	1	0	35	1	1.2	0.8;
	
];
mpc.bus(:,[3,4])=mpc.bus(:,[3,4])*1.1;

%% generator data
%	bus	Pg	Qg	Qmax	Qmin	Vg	mBase	status	Pmax	Pmin	Pc1	Pc2	Qc1min	Qc1max	Qc2min	Qc2max	ramp_agc	ramp_10	ramp_30	ramp_q	apf
mpc.gen = [
	28	80	0	150	-150	1 	100	1	250	10	0	0	0	0	0	0	0	0	0	0	0;
];

%% branch data
%	fbus	tbus	r	x	b	rateA	rateB	rateC	ratio	angle	status	angmin	angmax
mpc.branch = [
	1	12	0.0075	0.0038	0	250	250	250	0	0	1	-360	360;
	2	3	0.016	0.0053	0	250	250	250	0	0	1	-360	360;
	3	4	0.0306	0.0101	0	300	300	300	0	0	1	-360	360;
	4	5	0.1198	0.0943	0	300	300	300	0	0	1	-360	360;
    5	6	0.0442	0.0582	0	300	300	300	0	0	1	-360	360;
	6	7	0.0482	0.0429	0	300	300	300	0	0	1	-360	360;
	7	8	0.0609	0.0445	0	250	250	250	0	0	1	-360	360;
    8	9	0.1052	0.1405	0	250	250	250	0	0	1	-360	360;
	9	10	0.0598	0.0469	0	250	250	250	0	0	1	-360	360;
	12  11  0.0134  0.0128  0   300	300	300	0	0	1	-360	360;
    11  13  0.1228  0.1106  0   300	300	300	0	0	1	-360	360;
    12  23  0.0402  0.0205  0   300	300	300	0	0	1	-360	360;
    13  14  0.0334  0.0391  0   300 300	300	0	0	1	-360	360;
    14  15  0.0579  0.0765  0   300	300	300	0	0	1	-360	360;
    16  23  0.0368  0.0252  0   300	300	300	0	0	1	-360	360;
    16  17  0.0733  0.0579  0   300	300	300	0	0	1	-360	360;
    17  18  0.0731  0.0572  0   300	300	300	0	0	1	-360	360;
    19  31  0.0166  0.0084  0   300	300	300	0	0	1	-360	360;
    19  20  0.0232  0.0118  0   300	300	300	0	0	1	-360	360;
    20  21  0.0864  0.0762  0   300	300	300	0	0	1	-360	360;
    21  22  0.0656  0.0572  0   300	300	300	0	0	1	-360	360;
    22  24  0.0414  0.0211  0   300	300	300	0	0	1	-360	360;
    23  29  0.0299  0.0152  0   300	300	300	0	0	1	-360	360;
    24  25  0.0795  0.0786  0   300	300	300	0	0	1	-360	360;
    25  26  0.0253  0.0295  0   300	300	300	0	0	1	-360	360;
    26  27  0.0278  0.0438  0   300	300	300	0	0	1	-360	360;
    28   1  0.0026  0.0013  0   300	300	300	0	0	1	-360	360;
    29  30  0.0311  0.0158  0   300	300	300	0	0	1	-360	360;
    30  31  0.0669  0.0577  0   300	300	300	0	0	1	-360	360;
    31  32  0.0153  0.0505  0   300	300	300	0	0	1	-360	360;
    32  33  0.0581  0.0192  0   300	300	300	0	0	1	-360	360;
    33  34  0.0841  0.0604  0   300	300	300	0	0	1	-360	360;
    34  2   0.0852  0.0604  0   300	300	300	0	0	1	-360	360;	
];

%%-----  OPF Data  -----%%
%% generator cost data
%	1	startup	shutdown	n	x1	y1	...	xn	yn
%	2	startup	shutdown	n	c(n-1)	...	c0

save mpc 
end